5
Coordinates from ORCA-job orca E -1894.678765325345
  I      -2.352025     -7.032019      5.687457
  C      -1.784475     -5.302563      6.791031
  H      -0.974587     -5.586355      7.454309
  H      -1.463623     -4.548898      6.080093
  H      -2.651848     -4.969908      7.350849
5
Coordinates from ORCA-job orca E -1894.804680100941
  I      -2.315081     -6.919443      5.759310
  C      -1.789258     -5.317139      6.781719
  H      -0.980496     -5.622709      7.436742
  H      -1.472782     -4.578304      6.053374
  H      -2.668940     -5.002148      7.332595
5
Coordinates from ORCA-job orca E -1894.973744102482
  I      -2.276326     -6.801341      5.834696
  C      -1.791136     -5.322866      6.778052
  H      -0.985859     -5.665474      7.417561
  H      -1.482827     -4.611068      6.021011
  H      -2.690409     -5.038996      7.312419
5
Coordinates from ORCA-job orca E -1895.199472260645
  I      -2.235990     -6.678419      5.913154
  C      -1.790045     -5.319547      6.780162
  H      -0.991555     -5.713762      7.396240
  H      -1.494008     -4.647657      5.984252
  H      -2.714959     -5.080357      7.289933
5
Coordinates from ORCA-job orca E -1895.254929081524
  I      -2.237841     -6.683993      5.909653
  C      -1.813885     -5.392238      6.733748
  H      -0.999649     -5.674958      7.401492
  H      -1.490816     -4.632755      6.021294
  H      -2.684366     -5.055799      7.297553
5
Coordinates from ORCA-job orca E -1895.570192474853
  I      -2.199423     -6.566909      5.984393
  C      -1.816263     -5.399497      6.729097
  H      -1.006792     -5.715308      7.381460
  H      -1.501241     -4.666038      5.991975
  H      -2.702837     -5.091992      7.276815
5
Coordinates from ORCA-job orca E -1896.153932350388
  I      -2.162726     -6.455066      6.055796
  C      -1.821421     -5.415229      6.719033
  H      -1.017231     -5.747432      7.361080
  H      -1.511710     -4.697965      5.971418
  H      -2.713469     -5.124052      7.256413
5
Coordinates from ORCA-job orca E -1897.404466243563
  I      -2.128363     -6.350317      6.122702
  C      -1.829293     -5.439235      6.703682
  H      -1.028859     -5.772253      7.342004
  H      -1.521414     -4.726676      5.957628
  H      -2.718628     -5.151262      7.237723
5
Coordinates from ORCA-job orca E -1899.405986491880
  I      -2.092260     -6.240230      6.193078
  C      -1.835014     -5.456693      6.692499
  H      -1.043082     -5.800077      7.319509
  H      -1.532812     -4.760161      5.942865
  H      -2.723389     -5.182583      7.215790
5
Coordinates from ORCA-job orca E -1901.681208580945
  I      -2.053470     -6.121927      6.268750
  C      -1.836445     -5.461076      6.689664
  H      -1.059400     -5.835206      7.292645
  H      -1.546440     -4.800524      5.923236
  H      -2.730802     -5.221010      7.189444
5
Coordinates from ORCA-job orca E -1902.173070527360
  I      -2.014598     -6.003298      6.344759
  C      -1.822783     -5.419444      6.716230
  H      -1.089499     -5.879191      7.249971
  H      -1.567898     -4.862082      5.904265
  H      -2.731780     -5.275729      7.148516
5
Coordinates from ORCA-job orca E -1903.439382345926
  I      -2.012395     -5.996439      6.349398
  C      -1.802767     -5.358458      6.755134
  H      -1.121533     -5.883086      7.218708
  H      -1.583198     -4.901120      5.919742
  H      -2.706665     -5.300641      7.120757
5
Coordinates from ORCA-job orca E -1903.834366574437
  I      -2.007204     -5.981646      6.357027
  C      -1.797095     -5.341189      6.766145
  H      -1.187254     -5.845751      7.169874
  H      -1.607275     -4.954829      5.989671
  H      -2.627729     -5.316330      7.081024
5
Coordinates from ORCA-job orca E -1903.900656017995
  I      -2.019211     -6.014523      6.339557
  C      -1.798487     -5.347316      6.760781
  H      -1.212791     -5.809780      7.155987
  H      -1.612011     -4.961194      6.036052
  H      -2.584057     -5.306932      7.071362
5
Coordinates from ORCA-job orca E -1903.650727181728
  I      -1.977749     -5.972365      6.293558
  C      -1.796012     -5.328954      6.782820
  H      -1.214102     -5.818496      7.158291
  H      -1.637686     -5.026972      6.036947
  H      -2.601008     -5.292956      7.092124
5
Coordinates from ORCA-job orca E -1903.547942230920
  I      -2.006098     -5.958050      6.381300
  C      -1.778491     -5.281634      6.819515
  H      -1.226349     -5.839579      7.109628
  H      -1.618001     -5.013968      6.015046
  H      -2.597619     -5.346513      7.038251
5
Coordinates from ORCA-job orca E -1903.909682540909
  I      -2.039652     -6.007492      6.376984
  C      -1.798402     -5.341090      6.783659
  H      -1.196612     -5.807754      7.123896
  H      -1.589436     -4.964590      6.026941
  H      -2.602455     -5.318818      7.052260
5
Coordinates from ORCA-job orca E -1903.947374320220
  I      -2.016634     -6.020583      6.356699
  C      -1.809700     -5.364795      6.767604
  H      -1.180946     -5.785667      7.097216
  H      -1.582307     -4.989622      6.069523
  H      -2.636970     -5.279077      7.072697
5
Coordinates from ORCA-job orca E -1904.170465135361
  I      -2.016235     -5.984830      6.359422
  C      -1.806090     -5.340527      6.790194
  H      -1.155066     -5.782001      7.058419
  H      -1.576639     -5.046198      6.097658
  H      -2.672528     -5.286188      7.058045
5
Coordinates from ORCA-job orca E -1904.556740622630
  I      -2.017240     -5.952998      6.368089
  C      -1.806685     -5.320849      6.815879
  H      -1.119076     -5.762706      6.986234
  H      -1.558003     -5.119068      6.156583
  H      -2.725553     -5.284123      7.036955
5
Coordinates from ORCA-job orca E -1904.848133914519
  I      -2.016811     -5.925574      6.373280
  C      -1.809364     -5.311542      6.845895
  H      -1.089719     -5.735206      6.911827
  H      -1.542998     -5.190942      6.219863
  H      -2.767665     -5.276480      7.012876
5
Coordinates from ORCA-job orca E -1905.243727153431
  I      -1.997198     -5.932456      6.401168
  C      -1.816647     -5.317390      6.883136
  H      -1.039275     -5.729827      6.822794
  H      -1.580913     -5.221245      6.306748
  H      -2.792524     -5.238825      6.949895
5
Coordinates from ORCA-job orca E -1905.373821744203
  I      -1.944549     -5.961183      6.430315
  C      -1.842659     -5.328984      6.923786
  H      -1.030385     -5.720284      6.723223
  H      -1.602473     -5.239229      6.387059
  H      -2.806491     -5.190064      6.899358
5
Coordinates from ORCA-job orca E -1905.261429311286
  I      -1.920090     -6.001076      6.455331
  C      -1.879103     -5.373806      6.959636
  H      -1.018399     -5.678387      6.638341
  H      -1.615425     -5.252803      6.459155
  H      -2.793541     -5.133671      6.851278
5
Coordinates from ORCA-job orca E -1905.352311696377
  I      -1.854960     -6.015292      6.471438
  C      -1.887247     -5.391417      6.984211
  H      -1.068080     -5.713977      6.626091
  H      -1.636213     -5.196189      6.439856
  H      -2.780056     -5.122870      6.842144
5
Coordinates from ORCA-job orca E -1905.771555068973
  I      -1.854538     -5.957774      6.478732
  C      -1.900622     -5.325925      6.956408
  H      -1.050011     -5.818177      6.647946
  H      -1.643942     -5.143902      6.420454
  H      -2.777444     -5.193966      6.860198
5
Coordinates from ORCA-job orca E -1906.024380199071
  I      -1.849884     -5.904034      6.461787
  C      -1.923183     -5.274733      6.912391
  H      -1.027291     -5.915080      6.702658
  H      -1.668592     -5.093690      6.386749
  H      -2.757607     -5.252207      6.900155
5
Coordinates from ORCA-job orca E -1906.102561111565
  I      -1.851623     -5.902313      6.490834
  C      -1.944009     -5.263480      6.905762
  H      -1.007073     -5.943873      6.686661
  H      -1.681459     -5.070706      6.395899
  H      -2.742393     -5.259373      6.884584
5
Coordinates from ORCA-job orca E -1906.291468292718
  I      -1.856922     -5.904687      6.494037
  C      -1.930515     -5.258908      6.901957
  H      -0.991409     -5.944880      6.679947
  H      -1.682731     -5.077679      6.406955
  H      -2.764981     -5.253590      6.880844
5
Coordinates from ORCA-job orca E -1906.709866646148
  I      -1.823423     -5.921213      6.515641
  C      -1.882046     -5.245459      6.883146
  H      -0.999264     -5.936528      6.645850
  H      -1.713461     -5.108238      6.463097
  H      -2.808362     -5.228305      6.856006
5
Coordinates from ORCA-job orca E -1906.707652633924
  I      -1.821295     -5.912621      6.496819
  C      -1.877796     -5.241187      6.873731
  H      -1.000890     -5.944144      6.665392
  H      -1.715211     -5.107551      6.456089
  H      -2.811364     -5.234241      6.871709
5
Coordinates from ORCA-job orca E -1906.725684645914
  I      -1.821934     -5.917987      6.505055
  C      -1.877777     -5.244321      6.879261
  H      -1.000675     -5.938071      6.655782
  H      -1.712806     -5.109533      6.459079
  H      -2.813365     -5.229832      6.864563
5
Coordinates from ORCA-job orca E -1906.743097101362
  I      -1.822976     -5.921508      6.509174
  C      -1.879158     -5.247813      6.884795
  H      -1.000200     -5.933302      6.650634
  H      -1.710209     -5.110599      6.458418
  H      -2.814013     -5.226522      6.860719
5
Coordinates from ORCA-job orca E -1906.760974302535
  I      -1.823315     -5.920627      6.504949
  C      -1.880125     -5.249341      6.886424
  H      -0.999859     -5.932916      6.654606
  H      -1.708972     -5.110586      6.453875
  H      -2.814285     -5.226274      6.863886
5
Coordinates from ORCA-job orca E -1906.805668303022
  I      -1.820117     -5.925044      6.500248
  C      -1.890047     -5.255638      6.894740
  H      -0.985627     -5.932022      6.654350
  H      -1.715917     -5.114399      6.450123
  H      -2.814850     -5.212641      6.864279
5
Coordinates from ORCA-job orca E -1906.821836276184
  I      -1.812699     -5.926326      6.504473
  C      -1.887104     -5.259928      6.900103
  H      -0.983935     -5.930346      6.647569
  H      -1.715914     -5.118449      6.450372
  H      -2.826904     -5.204694      6.861223
5
Coordinates from ORCA-job orca E -1906.829519941353
  I      -1.808339     -5.931153      6.512532
  C      -1.886927     -5.264289      6.905903
  H      -0.981484     -5.925815      6.636604
  H      -1.716734     -5.122376      6.454737
  H      -2.833074     -5.196111      6.853965
5
Coordinates from ORCA-job orca E -1906.828812555413
  I      -1.805101     -5.927230      6.502750
  C      -1.887813     -5.262554      6.901939
  H      -0.978815     -5.929204      6.645362
  H      -1.721938     -5.125992      6.452859
  H      -2.832889     -5.194763      6.860830
5
Coordinates from ORCA-job orca E -1906.835258099444
  I      -1.803045     -5.928727      6.503057
  C      -1.890502     -5.263689      6.901257
  H      -0.973683     -5.926106      6.641685
  H      -1.726953     -5.133708      6.459375
  H      -2.832374     -5.187515      6.858365
5
Coordinates from ORCA-job orca E -1906.840260673590
  I      -1.801076     -5.930451      6.504847
  C      -1.893881     -5.265027      6.900477
  H      -0.967597     -5.921798      6.635776
  H      -1.732791     -5.143644      6.468459
  H      -2.831211     -5.178824      6.854181
5
Coordinates from ORCA-job orca E -1906.854019888982
  I      -1.797456     -5.926909      6.504814
  C      -1.897136     -5.265745      6.898837
  H      -0.961937     -5.919974      6.632324
  H      -1.738744     -5.155687      6.475424
  H      -2.831284     -5.171428      6.852342
5
Coordinates from ORCA-job orca E -1906.843587108830
  I      -1.785026     -5.911247      6.498809
  C      -1.910689     -5.271423      6.891888
  H      -0.937098     -5.906663      6.622403
  H      -1.764124     -5.213239      6.503246
  H      -2.829621     -5.137173      6.847395
5
Coordinates from ORCA-job orca E -1906.854495752168
  I      -1.786580     -5.918127      6.507142
  C      -1.914022     -5.276463      6.898457
  H      -0.937635     -5.899584      6.611777
  H      -1.762913     -5.212869      6.508376
  H      -2.825407     -5.132701      6.837988
5
Coordinates from ORCA-job orca E -1906.873590995150
  I      -1.786396     -5.913746      6.501549
  C      -1.913588     -5.271647      6.895523
  H      -0.943667     -5.907789      6.622632
  H      -1.760479     -5.202729      6.497571
  H      -2.822427     -5.143832      6.846465
5
Coordinates from ORCA-job orca E -1906.878496603455
  I      -1.788172     -5.917924      6.506133
  C      -1.915072     -5.274664      6.899476
  H      -0.943729     -5.903344      6.616881
  H      -1.758927     -5.202510      6.499901
  H      -2.820657     -5.141301      6.841349
5
Coordinates from ORCA-job orca E -1906.895338970181
  I      -1.791373     -5.911174      6.496025
  C      -1.914748     -5.270083      6.895402
  H      -0.944260     -5.907664      6.629857
  H      -1.757348     -5.202754      6.490900
  H      -2.818828     -5.148068      6.851556
5
Coordinates from ORCA-job orca E -1906.906669806714
  I      -1.793213     -5.912967      6.498067
  C      -1.916185     -5.271855      6.897846
  H      -0.943836     -5.904291      6.626806
  H      -1.756514     -5.204326      6.492416
  H      -2.816809     -5.146305      6.848606
5
Coordinates from ORCA-job orca E -1906.916490983244
  I      -1.795946     -5.915883      6.501761
  C      -1.919429     -5.275335      6.902027
  H      -0.943222     -5.897750      6.621076
  H      -1.755763     -5.208229      6.495792
  H      -2.812197     -5.142547      6.843085
5
Coordinates from ORCA-job orca E -1906.922242653405
  I      -1.796395     -5.910786      6.496534
  C      -1.921065     -5.272699      6.899445
  H      -0.944850     -5.899768      6.627921
  H      -1.756626     -5.210038      6.491570
  H      -2.807621     -5.146454      6.848269
5
Coordinates from ORCA-job orca E -1906.928026809826
  I      -1.798437     -5.910296      6.496217
  C      -1.923659     -5.273704      6.900605
  H      -0.945381     -5.896109      6.627490
  H      -1.756582     -5.213972      6.492314
  H      -2.802498     -5.145663      6.847113
5
Coordinates from ORCA-job orca E -1908.170895984696
  I      -1.858617     -5.912548      6.522264
  C      -1.917238     -5.292753      6.940323
  H      -0.911192     -5.855656      6.587400
  H      -1.797311     -5.246292      6.532276
  H      -2.742199     -5.132494      6.781477
5
Coordinates from ORCA-job orca E -1908.486144043812
  I      -1.931960     -5.918718      6.543367
  C      -1.915583     -5.320581      6.967915
  H      -0.867477     -5.801347      6.555793
  H      -1.837516     -5.289813      6.571724
  H      -2.674020     -5.109284      6.724941
5
Coordinates from ORCA-job orca E -1908.468555353365
  I      -1.990871     -5.917358      6.540056
  C      -1.916481     -5.323654      6.973931
  H      -0.801452     -5.809792      6.572384
  H      -1.846447     -5.265462      6.534187
  H      -2.671307     -5.123477      6.743182
5
Coordinates from ORCA-job orca E -1908.484120702372
  I      -1.994241     -5.942027      6.530257
  C      -1.872757     -5.347923      6.960284
  H      -0.847002     -5.781944      6.604827
  H      -1.846271     -5.255530      6.503664
  H      -2.666286     -5.112320      6.764709
5
Coordinates from ORCA-job orca E -1908.280812994526
  I      -1.950014     -5.908551      6.509230
  C      -1.826599     -5.315993      6.956981
  H      -0.905932     -5.802040      6.622184
  H      -1.808841     -5.285705      6.483523
  H      -2.735171     -5.127454      6.791823
5
Coordinates from ORCA-job orca E -1907.074446883992
  I      -1.952611     -5.967821      6.479402
  C      -1.876919     -5.405480      6.978021
  H      -0.828482     -5.691172      6.623477
  H      -1.859433     -5.401957      6.480089
  H      -2.709112     -4.973313      6.802751
5
Coordinates from ORCA-job orca E -1907.229764410902
  I      -1.911435     -5.899409      6.496436
  C      -1.857364     -5.307040      6.953519
  H      -0.867183     -5.804907      6.631789
  H      -1.841524     -5.342024      6.460252
  H      -2.749050     -5.086364      6.821743
5
Coordinates from ORCA-job orca E -1907.161011725572
  I      -1.933956     -5.882192      6.499059
  C      -1.843482     -5.263458      6.916337
  H      -0.914146     -5.835514      6.671794
  H      -1.819586     -5.289465      6.422589
  H      -2.715387     -5.169115      6.853961
5
Coordinates from ORCA-job orca E -1908.035670804891
  I      -1.991585     -5.915919      6.519972
  C      -1.852429     -5.295740      6.934571
  H      -0.947296     -5.776884      6.650970
  H      -1.793932     -5.278484      6.445067
  H      -2.641315     -5.172716      6.813160
5
Coordinates from ORCA-job orca E -1908.789314351380
  I      -2.048743     -5.961197      6.524731
  C      -1.873618     -5.356279      6.954777
  H      -0.956692     -5.688741      6.634363
  H      -1.786358     -5.304654      6.471054
  H      -2.561146     -5.128872      6.778814
5
Coordinates from ORCA-job orca E -1908.281615605215
  I      -2.122371     -6.007614      6.503661
  C      -1.876794     -5.415581      6.945078
  H      -0.963340     -5.578206      6.671926
  H      -1.797602     -5.362851      6.444939
  H      -2.466451     -5.075492      6.798136
5
Coordinates from ORCA-job orca E -1908.934528873241
  I      -2.110935     -5.974886      6.513137
  C      -1.826181     -5.405369      6.948039
  H      -0.999715     -5.601110      6.687099
  H      -1.794948     -5.352689      6.414903
  H      -2.494779     -5.105689      6.800563
5
Coordinates from ORCA-job orca E -1909.107604834944
  I      -2.048865     -5.933435      6.519713
  C      -1.841954     -5.349678      6.929622
  H      -1.020738     -5.663787      6.681571
  H      -1.827509     -5.338694      6.433237
  H      -2.487491     -5.154149      6.799597
5
Coordinates from ORCA-job orca E -1909.599654166882
  I      -2.045884     -5.954949      6.508773
  C      -1.798998     -5.382880      6.947222
  H      -1.022399     -5.638535      6.660519
  H      -1.808852     -5.368222      6.467218
  H      -2.550424     -5.095158      6.780008
5
Coordinates from ORCA-job orca E -1909.817672834809
  I      -2.045780     -5.976118      6.503392
  C      -1.767648     -5.439935      6.951237
  H      -1.089596     -5.568247      6.673538
  H      -1.792486     -5.409910      6.450940
  H      -2.531047     -5.045534      6.784633
5
Coordinates from ORCA-job orca E -1909.674893408118
  I      -2.056576     -5.999008      6.490804
  C      -1.734657     -5.403808      6.926184
  H      -1.156631     -5.562620      6.711661
  H      -1.778143     -5.406840      6.425857
  H      -2.500549     -5.067467      6.809234
5
Coordinates from ORCA-job orca E -1910.113808310991
  I      -2.028089     -5.973296      6.495593
  C      -1.720644     -5.410459      6.940004
  H      -1.135749     -5.593299      6.684219
  H      -1.768569     -5.420586      6.441124
  H      -2.573505     -5.042104      6.802800
